<?xml version="1.0" encoding="UTF-8"?>
<!-- generated on 2023-05-07 15:32:14.815225 by randomTrips.py v1_11_0+0000-d32ff7d52a3
  options: -n pavillons.net.xml -e 20 -o pavillons.trips.xml
-->
<routes xmlns:xsi="http://www.w3.org/2001/XMLSchema-instance" xsi:noNamespaceSchemaLocation="http://sumo.dlr.de/xsd/routes_file.xsd">
    <trip id="0" depart="0.00" from="28107416#2" to="-28107416#0"/>
    <trip id="1" depart="1.00" from="-30155252#2" to="-30155252#1"/>
    <trip id="2" depart="2.00" from="30155252#1" to="30155252#0"/>
    <trip id="3" depart="3.00" from="89561100" to="-28107416#1"/>
    <trip id="4" depart="4.00" from="-89561100" to="-28107416#0"/>
    <trip id="5" depart="5.00" from="-30155252#1" to="28107416#1"/>
    <trip id="6" depart="6.00" from="-28107416#1" to="-30155252#0"/>
    <trip id="7" depart="7.00" from="28107416#2" to="28107416#1"/>
    <trip id="8" depart="8.00" from="-30155252#1" to="28107416#2"/>
    <trip id="9" depart="9.00" from="30155252#3" to="-28107416#0"/>
    <trip id="10" depart="10.00" from="30155252#3" to="30155252#0"/>
    <trip id="11" depart="11.00" from="-30155252#3" to="-30155252#0"/>
    <trip id="12" depart="12.00" from="89561107#1" to="-30155252#3"/>
    <trip id="13" depart="13.00" from="-28107416#2" to="-28107416#1"/>
    <trip id="14" depart="14.00" from="30155252#3" to="28107416#3"/>
    <trip id="15" depart="15.00" from="30155252#3" to="30155252#1"/>
    <trip id="16" depart="16.00" from="28107416#0" to="89561107#1"/>
    <trip id="17" depart="17.00" from="-30155252#4" to="28107416#2"/>
    <trip id="18" depart="18.00" from="30155252#3" to="28107416#3"/>
    <trip id="19" depart="19.00" from="89561100" to="28107416#2"/>
</routes>
