<?xml version="1.0" encoding="UTF-8"?>

<!-- generated on 2023-05-07 15:32:19 by Eclipse SUMO duarouter Version 1.11.0
<configuration xmlns:xsi="http://www.w3.org/2001/XMLSchema-instance" xsi:noNamespaceSchemaLocation="http://sumo.dlr.de/xsd/duarouterConfiguration.xsd">

    <input>
        <net-file value="pavillons.net.xml"/>
        <route-files value="pavillons.trips.xml"/>
    </input>

    <output>
        <output-file value="pavillons.rou.xml"/>
        <alternatives-output value="pavillons.rou.alt.xml"/>
    </output>

    <report>
        <ignore-errors value="true"/>
    </report>

</configuration>
-->

<routes xmlns:xsi="http://www.w3.org/2001/XMLSchema-instance" xsi:noNamespaceSchemaLocation="http://sumo.dlr.de/xsd/routes_file.xsd">
    <vehicle id="0" depart="0.00">
        <route edges="28107416#2 28107416#3 -28107416#3 -28107416#2 -28107416#1 -28107416#0"/>
    </vehicle>
    <vehicle id="1" depart="1.00">
        <route edges="-30155252#2 -30155252#1"/>
    </vehicle>
    <vehicle id="2" depart="2.00">
        <route edges="30155252#1 -30155252#1 -30155252#0 30155252#0"/>
    </vehicle>
    <vehicle id="3" depart="3.00">
        <route edges="89561100 -30155252#0 28107416#1 28107416#2 28107416#3 -28107416#3 -28107416#2 -28107416#1"/>
    </vehicle>
    <vehicle id="4" depart="4.00">
        <route edges="-89561100 -30155252#1 -30155252#0 -28107416#0"/>
    </vehicle>
    <vehicle id="5" depart="5.00">
        <route edges="-30155252#1 -30155252#0 28107416#1"/>
    </vehicle>
    <vehicle id="6" depart="6.00">
        <route edges="-28107416#1 30155252#0 -30155252#0"/>
    </vehicle>
    <vehicle id="7" depart="7.00">
        <route edges="28107416#2 28107416#3 -28107416#3 -28107416#2 -28107416#1 28107416#1"/>
    </vehicle>
    <vehicle id="8" depart="8.00">
        <route edges="-30155252#1 -30155252#0 28107416#1 28107416#2"/>
    </vehicle>
    <vehicle id="9" depart="9.00">
        <route edges="30155252#3 30155252#4 -30155252#4 -30155252#3 -30155252#2 -30155252#1 -30155252#0 -28107416#0"/>
    </vehicle>
    <vehicle id="10" depart="10.00">
        <route edges="30155252#3 30155252#4 -30155252#4 -30155252#3 -30155252#2 -30155252#1 -30155252#0 30155252#0"/>
    </vehicle>
    <vehicle id="11" depart="11.00">
        <route edges="-30155252#3 -30155252#2 -30155252#1 -30155252#0"/>
    </vehicle>
    <vehicle id="12" depart="12.00">
        <route edges="89561107#1 30155252#1 30155252#2 30155252#3 30155252#4 -30155252#4 -30155252#3"/>
    </vehicle>
    <vehicle id="13" depart="13.00">
        <route edges="-28107416#2 -28107416#1"/>
    </vehicle>
    <vehicle id="14" depart="14.00">
        <route edges="30155252#3 30155252#4 -30155252#4 -30155252#3 -30155252#2 -30155252#1 -30155252#0 28107416#1 28107416#2 28107416#3"/>
    </vehicle>
    <vehicle id="15" depart="15.00">
        <route edges="30155252#3 30155252#4 -30155252#4 -30155252#3 -30155252#2 -30155252#1 30155252#1"/>
    </vehicle>
    <vehicle id="16" depart="16.00">
        <route edges="28107416#0 30155252#0 -89561107#1 -89561107#0 89561107#0 89561107#1"/>
    </vehicle>
    <vehicle id="17" depart="17.00">
        <route edges="-30155252#4 -30155252#3 -30155252#2 -30155252#1 -30155252#0 28107416#1 28107416#2"/>
    </vehicle>
    <vehicle id="18" depart="18.00">
        <route edges="30155252#3 30155252#4 -30155252#4 -30155252#3 -30155252#2 -30155252#1 -30155252#0 28107416#1 28107416#2 28107416#3"/>
    </vehicle>
    <vehicle id="19" depart="19.00">
        <route edges="89561100 -30155252#0 28107416#1 28107416#2"/>
    </vehicle>
</routes>
