<?xml version="1.0" encoding="UTF-8"?>

<!-- generated on 2023-05-04 18:34:48 by Eclipse SUMO netconvert Version 1.11.0
<configuration xmlns:xsi="http://www.w3.org/2001/XMLSchema-instance" xsi:noNamespaceSchemaLocation="http://sumo.dlr.de/xsd/netconvertConfiguration.xsd">

    <input>
        <osm-files value="pavillons.osm"/>
    </input>

    <output>
        <output-file value="pavillons.net.xml"/>
    </output>

    <projection>
        <proj.utm value="true"/>
    </projection>

    <processing>
        <geometry.remove value="true"/>
        <roundabouts.guess value="true"/>
    </processing>

    <tls_building>
        <tls.discard-simple value="true"/>
        <tls.join value="true"/>
        <tls.guess-signals value="true"/>
    </tls_building>

    <ramp_guessing>
        <ramps.guess value="true"/>
    </ramp_guessing>

    <junctions>
        <junctions.join value="true"/>
    </junctions>

    <report>
        <aggregate-warnings value="5"/>
    </report>

</configuration>
-->

<net version="1.9" junctionCornerDetail="5" limitTurnSpeed="5.50" xmlns:xsi="http://www.w3.org/2001/XMLSchema-instance" xsi:noNamespaceSchemaLocation="http://sumo.dlr.de/xsd/net_file.xsd">

    <location netOffset="-486350.29,-5410346.41" convBoundary="0.00,0.00,505.63,305.05" origBoundary="2.813953,48.845942,2.820840,48.848688" projParameter="+proj=utm +zone=31 +ellps=WGS84 +datum=WGS84 +units=m +no_defs"/>

    <type id="highway.bridleway" priority="1" numLanes="1" speed="2.78" allow="pedestrian" oneway="1" width="2.00"/>
    <type id="highway.bus_guideway" priority="1" numLanes="1" speed="27.78" allow="bus" oneway="1"/>
    <type id="highway.cycleway" priority="1" numLanes="1" speed="8.33" allow="bicycle" oneway="0" width="1.00"/>
    <type id="highway.footway" priority="1" numLanes="1" speed="2.78" allow="pedestrian" oneway="1" width="2.00"/>
    <type id="highway.ford" priority="1" numLanes="1" speed="2.78" allow="army" oneway="0"/>
    <type id="highway.living_street" priority="2" numLanes="1" speed="2.78" disallow="tram rail_urban rail rail_electric rail_fast ship" oneway="0"/>
    <type id="highway.motorway" priority="14" numLanes="2" speed="39.44" allow="private emergency authority army vip passenger hov taxi bus coach delivery truck trailer motorcycle evehicle custom1 custom2" oneway="1"/>
    <type id="highway.motorway_link" priority="9" numLanes="1" speed="22.22" allow="private emergency authority army vip passenger hov taxi bus coach delivery truck trailer motorcycle evehicle custom1 custom2" oneway="1"/>
    <type id="highway.path" priority="1" numLanes="1" speed="2.78" allow="pedestrian bicycle" oneway="0" width="2.00"/>
    <type id="highway.pedestrian" priority="1" numLanes="1" speed="2.78" allow="pedestrian" oneway="1" width="2.00"/>
    <type id="highway.primary" priority="12" numLanes="2" speed="27.78" disallow="tram rail_urban rail rail_electric rail_fast ship" oneway="0"/>
    <type id="highway.primary_link" priority="7" numLanes="1" speed="22.22" disallow="tram rail_urban rail rail_electric rail_fast ship" oneway="0"/>
    <type id="highway.raceway" priority="15" numLanes="2" speed="83.33" allow="vip" oneway="0"/>
    <type id="highway.residential" priority="3" numLanes="1" speed="13.89" disallow="tram rail_urban rail rail_electric rail_fast ship" oneway="0"/>
    <type id="highway.secondary" priority="11" numLanes="1" speed="27.78" disallow="tram rail_urban rail rail_electric rail_fast ship" oneway="0"/>
    <type id="highway.secondary_link" priority="6" numLanes="1" speed="22.22" disallow="tram rail_urban rail rail_electric rail_fast ship" oneway="0"/>
    <type id="highway.service" priority="1" numLanes="1" speed="5.56" allow="pedestrian delivery bicycle" oneway="0"/>
    <type id="highway.stairs" priority="1" numLanes="1" speed="1.39" allow="pedestrian" oneway="1" width="2.00"/>
    <type id="highway.step" priority="1" numLanes="1" speed="1.39" allow="pedestrian" oneway="1" width="2.00"/>
    <type id="highway.steps" priority="1" numLanes="1" speed="1.39" allow="pedestrian" oneway="1" width="2.00"/>
    <type id="highway.tertiary" priority="10" numLanes="1" speed="22.22" disallow="tram rail_urban rail rail_electric rail_fast ship" oneway="0"/>
    <type id="highway.tertiary_link" priority="5" numLanes="1" speed="22.22" disallow="tram rail_urban rail rail_electric rail_fast ship" oneway="0"/>
    <type id="highway.track" priority="1" numLanes="1" speed="5.56" allow="pedestrian motorcycle moped bicycle" oneway="0"/>
    <type id="highway.trunk" priority="13" numLanes="2" speed="27.78" disallow="pedestrian bicycle tram rail_urban rail rail_electric rail_fast ship" oneway="0"/>
    <type id="highway.trunk_link" priority="8" numLanes="1" speed="22.22" disallow="pedestrian bicycle tram rail_urban rail rail_electric rail_fast ship" oneway="0"/>
    <type id="highway.unclassified" priority="4" numLanes="1" speed="13.89" disallow="tram rail_urban rail rail_electric rail_fast ship" oneway="0"/>
    <type id="highway.unsurfaced" priority="1" numLanes="1" speed="8.33" disallow="tram rail_urban rail rail_electric rail_fast ship" oneway="0"/>
    <type id="railway.highspeed" priority="21" numLanes="1" speed="69.44" allow="rail_fast" oneway="1"/>
    <type id="railway.light_rail" priority="19" numLanes="1" speed="27.78" allow="rail_urban" oneway="1"/>
    <type id="railway.preserved" priority="16" numLanes="1" speed="27.78" allow="rail" oneway="1"/>
    <type id="railway.rail" priority="20" numLanes="1" speed="44.44" allow="rail" oneway="1"/>
    <type id="railway.subway" priority="18" numLanes="1" speed="27.78" allow="rail_urban" oneway="1"/>
    <type id="railway.tram" priority="17" numLanes="1" speed="13.89" allow="tram" oneway="1"/>

    <edge id=":1038114266_0" function="internal">
        <lane id=":1038114266_0_0" index="0" disallow="tram rail_urban rail rail_electric rail_fast ship" speed="6.23" length="9.05" shape="154.73,90.03 152.20,89.81 150.33,90.48 149.09,92.05 148.51,94.51"/>
    </edge>
    <edge id=":1038114266_1" function="internal">
        <lane id=":1038114266_1_0" index="0" disallow="tram rail_urban rail rail_electric rail_fast ship" speed="7.98" length="14.64" shape="154.73,90.03 150.90,88.55 148.52,86.25 147.59,83.13 148.12,79.20"/>
    </edge>
    <edge id=":1038114266_2" function="internal">
        <lane id=":1038114266_2_0" index="0" disallow="tram rail_urban rail rail_electric rail_fast ship" speed="3.65" length="4.67" shape="154.73,90.03 153.74,88.98 153.53,88.11 154.11,87.42 155.46,86.92"/>
    </edge>
    <edge id=":1038114266_3" function="internal">
        <lane id=":1038114266_3_0" index="0" disallow="tram rail_urban rail rail_electric rail_fast ship" speed="6.48" length="9.29" shape="151.19,80.08 150.87,82.56 151.47,84.52 153.00,85.97 155.46,86.92"/>
    </edge>
    <edge id=":1038114266_4" function="internal">
        <lane id=":1038114266_4_0" index="0" disallow="tram rail_urban rail rail_electric rail_fast ship" speed="22.22" length="14.69" shape="151.19,80.08 150.25,83.66 149.50,87.23 148.92,90.83 148.51,94.51"/>
    </edge>
    <edge id=":1038114266_5" function="internal">
        <lane id=":1038114266_5_0" index="0" disallow="tram rail_urban rail rail_electric rail_fast ship" speed="3.65" length="2.34" shape="151.19,80.08 150.09,81.01 149.21,81.18"/>
    </edge>
    <edge id=":1038114266_9" function="internal">
        <lane id=":1038114266_9_0" index="0" disallow="tram rail_urban rail rail_electric rail_fast ship" speed="3.65" length="2.34" shape="149.21,81.18 148.55,80.57 148.12,79.20"/>
    </edge>
    <edge id=":1038114266_6" function="internal">
        <lane id=":1038114266_6_0" index="0" disallow="tram rail_urban rail rail_electric rail_fast ship" speed="22.22" length="15.30" shape="145.32,94.22 145.75,90.44 146.37,86.64 147.16,82.87 148.12,79.20"/>
    </edge>
    <edge id=":1038114266_7" function="internal">
        <lane id=":1038114266_7_0" index="0" disallow="tram rail_urban rail rail_electric rail_fast ship" speed="7.77" length="6.41" shape="145.32,94.22 146.28,90.20 147.69,88.41"/>
    </edge>
    <edge id=":1038114266_8" function="internal">
        <lane id=":1038114266_8_0" index="0" disallow="tram rail_urban rail rail_electric rail_fast ship" speed="3.65" length="2.34" shape="145.32,94.22 146.23,93.09 147.06,92.77"/>
    </edge>
    <edge id=":1038114266_10" function="internal">
        <lane id=":1038114266_10_0" index="0" disallow="tram rail_urban rail rail_electric rail_fast ship" speed="7.77" length="8.34" shape="147.69,88.41 148.29,87.65 151.35,86.55 155.46,86.92"/>
    </edge>
    <edge id=":1038114266_11" function="internal">
        <lane id=":1038114266_11_0" index="0" disallow="tram rail_urban rail rail_electric rail_fast ship" speed="3.65" length="2.34" shape="147.06,92.77 147.82,93.24 148.51,94.51"/>
    </edge>
    <edge id=":1038114280_0" function="internal">
        <lane id=":1038114280_0_0" index="0" disallow="tram rail_urban rail rail_electric rail_fast ship" speed="22.22" length="4.77" shape="143.95,112.53 143.88,111.11 143.88,110.14 143.94,109.17 144.07,107.76"/>
    </edge>
    <edge id=":1038114280_1" function="internal">
        <lane id=":1038114280_1_0" index="0" disallow="tram rail_urban rail rail_electric rail_fast ship" speed="22.22" length="4.31" shape="147.26,108.06 147.14,109.33 147.08,110.20 147.08,111.08 147.14,112.36"/>
    </edge>
    <edge id=":1038138163_0" function="internal">
        <lane id=":1038138163_0_0" index="0" allow="pedestrian bicycle" speed="2.78" length="2.92" width="2.00" shape="259.56,305.51 258.77,305.94 258.21,305.94 257.88,305.48 257.79,304.59"/>
    </edge>
    <edge id=":1038194510_0" function="internal">
        <lane id=":1038194510_0_0" index="0" disallow="tram rail_urban rail rail_electric rail_fast ship" speed="13.89" length="4.87" shape="279.64,139.30 278.51,138.40 277.78,137.74 277.10,137.01 276.14,135.94"/>
    </edge>
    <edge id=":1038194510_1" function="internal">
        <lane id=":1038194510_1_0" index="0" disallow="tram rail_urban rail rail_electric rail_fast ship" speed="13.89" length="4.30" shape="278.51,133.79 279.36,134.74 279.96,135.39 280.60,135.98 281.59,136.77"/>
    </edge>
    <edge id=":1038194557_0" function="internal">
        <lane id=":1038194557_0_0" index="0" disallow="tram rail_urban rail rail_electric rail_fast ship" speed="22.22" length="4.94" shape="163.67,194.06 161.89,189.45"/>
    </edge>
    <edge id=":1038194557_1" function="internal">
        <lane id=":1038194557_1_0" index="0" disallow="tram rail_urban rail rail_electric rail_fast ship" speed="22.22" length="4.98" shape="164.87,188.27 166.67,192.92"/>
    </edge>
    <edge id=":1038194573_0" function="internal">
        <lane id=":1038194573_0_0" index="0" disallow="tram rail_urban rail rail_electric rail_fast ship" speed="3.65" length="4.67" shape="231.59,287.86 230.34,288.57 229.44,288.57 228.91,287.86 228.73,286.43"/>
    </edge>
    <edge id=":1038194619_0" function="internal">
        <lane id=":1038194619_0_0" index="0" disallow="tram rail_urban rail rail_electric rail_fast ship" speed="6.42" length="9.23" shape="191.57,97.96 188.96,97.96 187.05,98.77 185.81,100.40 185.27,102.84"/>
    </edge>
    <edge id=":1038194619_1" function="internal">
        <lane id=":1038194619_1_0" index="0" disallow="tram rail_urban rail rail_electric rail_fast ship" speed="13.89" length="14.87" shape="191.57,97.96 187.88,97.41 184.23,96.78 180.59,96.07 176.95,95.26"/>
    </edge>
    <edge id=":1038194619_2" function="internal">
        <lane id=":1038194619_2_0" index="0" disallow="tram rail_urban rail rail_electric rail_fast ship" speed="7.78" length="14.72" shape="191.57,97.96 187.61,96.82 185.16,94.69 184.19,91.59 184.72,87.51"/>
    </edge>
    <edge id=":1038194619_3" function="internal">
        <lane id=":1038194619_3_0" index="0" disallow="tram rail_urban rail rail_electric rail_fast ship" speed="3.65" length="4.67" shape="191.57,97.96 190.49,97.00 190.20,96.16 190.71,95.42 192.01,94.79"/>
    </edge>
    <edge id=":1038194619_4" function="internal">
        <lane id=":1038194619_4_0" index="0" disallow="tram rail_urban rail rail_electric rail_fast ship" speed="6.24" length="9.05" shape="187.80,88.37 187.48,90.88 188.07,92.78 189.58,94.09 192.01,94.79"/>
    </edge>
    <edge id=":1038194619_5" function="internal">
        <lane id=":1038194619_5_0" index="0" disallow="tram rail_urban rail rail_electric rail_fast ship" speed="13.89" length="14.71" shape="187.80,88.37 186.89,91.96 186.16,95.54 185.63,99.15 185.27,102.84"/>
    </edge>
    <edge id=":1038194619_6" function="internal">
        <lane id=":1038194619_6_0" index="0" disallow="tram rail_urban rail rail_electric rail_fast ship" speed="8.21" length="5.81" shape="187.80,88.37 186.20,92.12 184.99,93.36"/>
    </edge>
    <edge id=":1038194619_7" function="internal">
        <lane id=":1038194619_7_0" index="0" disallow="tram rail_urban rail rail_electric rail_fast ship" speed="3.65" length="2.34" shape="187.80,88.37 186.71,89.31 185.83,89.48"/>
    </edge>
    <edge id=":1038194619_16" function="internal">
        <lane id=":1038194619_16_0" index="0" disallow="tram rail_urban rail rail_electric rail_fast ship" speed="8.21" length="8.71" shape="184.99,93.36 183.85,94.52 180.77,95.57 176.95,95.26"/>
    </edge>
    <edge id=":1038194619_17" function="internal">
        <lane id=":1038194619_17_0" index="0" disallow="tram rail_urban rail rail_electric rail_fast ship" speed="3.65" length="2.34" shape="185.83,89.48 185.17,88.88 184.72,87.51"/>
    </edge>
    <edge id=":1038194619_8" function="internal">
        <lane id=":1038194619_8_0" index="0" disallow="tram rail_urban rail rail_electric rail_fast ship" speed="6.76" length="9.51" shape="177.68,92.14 180.15,92.33 182.14,91.62 183.66,90.01 184.72,87.51"/>
    </edge>
    <edge id=":1038194619_9" function="internal">
        <lane id=":1038194619_9_0" index="0" disallow="tram rail_urban rail rail_electric rail_fast ship" speed="13.89" length="14.57" shape="177.68,92.14 181.28,92.94 184.81,93.64 188.37,94.25 192.01,94.79"/>
    </edge>
    <edge id=":1038194619_10" function="internal">
        <lane id=":1038194619_10_0" index="0" disallow="tram rail_urban rail rail_electric rail_fast ship" speed="8.58" length="14.48" shape="177.68,92.14 181.24,93.54 183.69,95.78 185.03,98.88 185.27,102.84"/>
    </edge>
    <edge id=":1038194619_11" function="internal">
        <lane id=":1038194619_11_0" index="0" disallow="tram rail_urban rail rail_electric rail_fast ship" speed="3.65" length="4.67" shape="177.68,92.14 178.67,93.20 178.88,94.07 178.30,94.75 176.95,95.26"/>
    </edge>
    <edge id=":1038194619_12" function="internal">
        <lane id=":1038194619_12_0" index="0" disallow="tram rail_urban rail rail_electric rail_fast ship" speed="7.19" length="9.90" shape="182.08,102.61 181.92,99.88 181.01,97.75 179.36,96.21 176.95,95.26"/>
    </edge>
    <edge id=":1038194619_13" function="internal">
        <lane id=":1038194619_13_0" index="0" disallow="tram rail_urban rail rail_electric rail_fast ship" speed="13.89" length="15.35" shape="182.08,102.61 182.45,98.82 183.03,95.00 183.79,91.20 184.72,87.51"/>
    </edge>
    <edge id=":1038194619_14" function="internal">
        <lane id=":1038194619_14_0" index="0" disallow="tram rail_urban rail rail_electric rail_fast ship" speed="7.93" length="6.37" shape="182.08,102.61 182.94,98.70 184.36,96.81"/>
    </edge>
    <edge id=":1038194619_15" function="internal">
        <lane id=":1038194619_15_0" index="0" disallow="tram rail_urban rail rail_electric rail_fast ship" speed="3.65" length="2.34" shape="182.08,102.61 182.96,101.47 183.79,101.13"/>
    </edge>
    <edge id=":1038194619_18" function="internal">
        <lane id=":1038194619_18_0" index="0" disallow="tram rail_urban rail rail_electric rail_fast ship" speed="7.93" length="8.27" shape="184.36,96.81 184.89,96.10 187.91,94.79 192.01,94.79"/>
    </edge>
    <edge id=":1038194619_19" function="internal">
        <lane id=":1038194619_19_0" index="0" disallow="tram rail_urban rail rail_electric rail_fast ship" speed="3.65" length="2.34" shape="183.79,101.13 184.56,101.58 185.27,102.84"/>
    </edge>
    <edge id=":1385011486_0" function="internal">
        <lane id=":1385011486_0_0" index="0" disallow="tram rail_urban rail rail_electric rail_fast ship" speed="13.89" length="5.62" shape="218.91,169.65 217.11,164.32"/>
    </edge>
    <edge id=":1385011486_1" function="internal">
        <lane id=":1385011486_1_0" index="0" disallow="tram rail_urban rail rail_electric rail_fast ship" speed="13.89" length="5.63" shape="220.14,163.30 221.94,168.63"/>
    </edge>
    <edge id=":308748368_0" function="internal">
        <lane id=":308748368_0_0" index="0" disallow="tram rail_urban rail rail_electric rail_fast ship" speed="3.65" length="4.67" shape="172.19,-0.49 173.32,-1.39 174.21,-1.52 174.84,-0.90 175.24,0.49"/>
    </edge>
    <edge id=":308748457_0" function="internal">
        <lane id=":308748457_0_0" index="0" disallow="tram rail_urban rail rail_electric rail_fast ship" speed="3.65" length="4.67" shape="167.36,194.74 167.03,196.15 166.43,196.81 165.54,196.72 164.36,195.88"/>
    </edge>
    <edge id=":332297658_0" function="internal">
        <lane id=":332297658_0_0" index="0" disallow="tram rail_urban rail rail_electric rail_fast ship" speed="3.65" length="4.67" shape="506.12,210.68 507.02,211.81 507.15,212.69 506.52,213.33 505.13,213.72"/>
    </edge>
    <edge id=":332297674_0" function="internal">
        <lane id=":332297674_0_0" index="0" disallow="tram rail_urban rail rail_electric rail_fast ship" speed="9.49" length="9.74" shape="266.26,121.63 264.88,119.90 263.06,118.54 260.79,117.56 258.07,116.96"/>
    </edge>
    <edge id=":332297674_1" function="internal">
        <lane id=":332297674_1_0" index="0" disallow="tram rail_urban rail rail_electric rail_fast ship" speed="12.06" length="12.66" shape="266.26,121.63 264.79,118.60 264.16,115.76 264.20,112.79 264.78,109.43"/>
    </edge>
    <edge id=":332297674_2" function="internal">
        <lane id=":332297674_2_0" index="0" disallow="tram rail_urban rail rail_electric rail_fast ship" speed="3.65" length="2.34" shape="266.26,121.63 266.33,120.19 266.81,119.43"/>
    </edge>
    <edge id=":332297674_9" function="internal">
        <lane id=":332297674_9_0" index="0" disallow="tram rail_urban rail rail_electric rail_fast ship" speed="3.65" length="2.34" shape="266.81,119.43 267.70,119.36 269.00,119.98"/>
    </edge>
    <edge id=":332297674_3" function="internal">
        <lane id=":332297674_3_0" index="0" disallow="tram rail_urban rail rail_electric rail_fast ship" speed="10.94" length="10.35" shape="267.91,110.11 267.28,113.10 267.10,115.27 267.60,117.32 269.00,119.98"/>
    </edge>
    <edge id=":332297674_4" function="internal">
        <lane id=":332297674_4_0" index="0" disallow="tram rail_urban rail rail_electric rail_fast ship" speed="8.02" length="4.95" shape="267.91,110.11 266.64,113.53 265.78,114.50"/>
    </edge>
    <edge id=":332297674_5" function="internal">
        <lane id=":332297674_5_0" index="0" disallow="tram rail_urban rail rail_electric rail_fast ship" speed="3.65" length="2.34" shape="267.91,110.11 266.87,111.11 266.01,111.33"/>
    </edge>
    <edge id=":332297674_10" function="internal">
        <lane id=":332297674_10_0" index="0" disallow="tram rail_urban rail rail_electric rail_fast ship" speed="8.02" length="8.51" shape="265.78,114.50 264.58,115.82 261.73,116.96 258.07,116.96"/>
    </edge>
    <edge id=":332297674_11" function="internal">
        <lane id=":332297674_11_0" index="0" disallow="tram rail_urban rail rail_electric rail_fast ship" speed="3.65" length="2.34" shape="266.01,111.33 265.31,110.77 264.78,109.43"/>
    </edge>
    <edge id=":332297674_6" function="internal">
        <lane id=":332297674_6_0" index="0" disallow="tram rail_urban rail rail_electric rail_fast ship" speed="6.52" length="8.57" shape="258.52,113.79 260.85,113.79 262.66,113.06 263.98,111.61 264.78,109.43"/>
    </edge>
    <edge id=":332297674_7" function="internal">
        <lane id=":332297674_7_0" index="0" disallow="tram rail_urban rail rail_electric rail_fast ship" speed="10.72" length="12.58" shape="258.52,113.79 261.95,114.57 264.83,115.86 267.19,117.66 269.00,119.98"/>
    </edge>
    <edge id=":332297674_8" function="internal">
        <lane id=":332297674_8_0" index="0" disallow="tram rail_urban rail rail_electric rail_fast ship" speed="3.65" length="4.67" shape="258.52,113.79 259.60,114.75 259.88,115.60 259.37,116.33 258.07,116.96"/>
    </edge>
    <edge id=":332297709_0" function="internal">
        <lane id=":332297709_0_0" index="0" allow="pedestrian bicycle" speed="4.84" length="4.48" width="2.00" shape="314.94,152.09 313.90,152.03 313.04,152.43 312.36,153.29 311.87,154.60"/>
    </edge>
    <edge id=":332297709_1" function="internal">
        <lane id=":332297709_1_0" index="0" disallow="tram rail_urban rail rail_electric rail_fast ship" speed="13.89" length="7.24" shape="314.94,152.09 307.93,150.29"/>
    </edge>
    <edge id=":332297709_2" function="internal">
        <lane id=":332297709_2_0" index="0" allow="pedestrian bicycle" speed="6.45" length="1.93" width="2.00" shape="314.94,152.09 313.19,151.27"/>
    </edge>
    <edge id=":332297709_14" function="internal">
        <lane id=":332297709_14_0" index="0" allow="pedestrian bicycle" speed="6.45" length="7.04" width="2.00" shape="313.19,151.27 313.04,151.21 311.92,149.69 311.57,147.54 311.99,144.76"/>
    </edge>
    <edge id=":332297709_3" function="internal">
        <lane id=":332297709_3_0" index="0" allow="pedestrian bicycle" speed="4.70" length="4.66" shape="313.92,145.31 313.73,146.68 313.97,147.74 314.62,148.51 315.71,148.98"/>
    </edge>
    <edge id=":332297709_4" function="internal">
        <lane id=":332297709_4_0" index="0" allow="pedestrian bicycle" speed="2.78" length="9.51" width="2.00" shape="313.92,145.31 311.87,154.60"/>
    </edge>
    <edge id=":332297709_5" function="internal">
        <lane id=":332297709_5_0" index="0" allow="pedestrian bicycle" speed="6.29" length="8.82" shape="313.92,145.31 312.94,147.93 311.61,149.63 309.94,150.42 307.93,150.29"/>
    </edge>
    <edge id=":332297709_6" function="internal">
        <lane id=":332297709_6_0" index="0" allow="pedestrian bicycle" speed="2.78" length="2.92" width="2.00" shape="313.92,145.31 313.23,145.89 312.68,145.99 312.27,145.62 311.99,144.76"/>
    </edge>
    <edge id=":332297709_7" function="internal">
        <lane id=":332297709_7_0" index="0" allow="pedestrian bicycle" speed="4.86" length="4.60" width="2.00" shape="308.76,147.20 309.87,147.29 310.78,146.91 311.49,146.07 311.99,144.76"/>
    </edge>
    <edge id=":332297709_8" function="internal">
        <lane id=":332297709_8_0" index="0" disallow="tram rail_urban rail rail_electric rail_fast ship" speed="13.89" length="7.17" shape="308.76,147.20 315.71,148.98"/>
    </edge>
    <edge id=":332297709_9" function="internal">
        <lane id=":332297709_9_0" index="0" allow="pedestrian bicycle" speed="6.55" length="2.17" width="2.00" shape="308.76,147.20 310.71,148.13"/>
    </edge>
    <edge id=":332297709_15" function="internal">
        <lane id=":332297709_15_0" index="0" allow="pedestrian bicycle" speed="6.55" length="6.92" width="2.00" shape="310.71,148.13 311.89,149.68 312.27,151.83 311.87,154.60"/>
    </edge>
    <edge id=":332297709_10" function="internal">
        <lane id=":332297709_10_0" index="0" allow="pedestrian bicycle" speed="4.91" length="5.05" shape="309.90,154.27 310.09,152.81 309.82,151.66 309.10,150.82 307.93,150.29"/>
    </edge>
    <edge id=":332297709_11" function="internal">
        <lane id=":332297709_11_0" index="0" allow="pedestrian bicycle" speed="2.78" length="9.74" width="2.00" shape="309.90,154.27 311.99,144.76"/>
    </edge>
    <edge id=":332297709_12" function="internal">
        <lane id=":332297709_12_0" index="0" allow="pedestrian bicycle" speed="6.34" length="8.83" shape="309.90,154.27 310.87,151.57 312.17,149.79 313.78,148.92 315.71,148.98"/>
    </edge>
    <edge id=":332297709_13" function="internal">
        <lane id=":332297709_13_0" index="0" allow="pedestrian bicycle" speed="2.78" length="2.92" width="2.00" shape="309.90,154.27 310.52,153.61 311.05,153.45 311.50,153.78 311.87,154.60"/>
    </edge>
    <edge id=":332297719_0" function="internal">
        <lane id=":332297719_0_0" index="0" allow="pedestrian bicycle" speed="2.78" length="5.01" width="2.00" shape="340.57,44.98 339.27,49.82"/>
    </edge>
    <edge id=":332297719_1" function="internal">
        <lane id=":332297719_1_0" index="0" allow="pedestrian bicycle" speed="2.78" length="2.92" width="2.00" shape="340.57,44.98 339.89,45.57 339.34,45.68 338.92,45.31 338.64,44.45"/>
    </edge>
    <edge id=":332297719_2" function="internal">
        <lane id=":332297719_2_0" index="0" allow="pedestrian bicycle" speed="2.78" length="5.03" width="2.00" shape="337.34,49.31 338.64,44.45"/>
    </edge>
    <edge id=":332297719_3" function="internal">
        <lane id=":332297719_3_0" index="0" allow="pedestrian bicycle" speed="2.78" length="2.92" width="2.00" shape="337.34,49.31 338.01,48.71 338.56,48.60 338.98,48.97 339.27,49.82"/>
    </edge>
    <edge id=":332297930_0" function="internal">
        <lane id=":332297930_0_0" index="0" allow="pedestrian bicycle" speed="2.78" length="5.54" width="2.00" shape="336.64,59.79 335.20,65.14"/>
    </edge>
    <edge id=":332297930_1" function="internal">
        <lane id=":332297930_1_0" index="0" allow="pedestrian bicycle" speed="2.78" length="2.92" width="2.00" shape="336.64,59.79 335.96,60.39 335.42,60.50 335.00,60.13 334.70,59.28"/>
    </edge>
    <edge id=":332297930_2" function="internal">
        <lane id=":332297930_2_0" index="0" allow="pedestrian bicycle" speed="2.78" length="5.53" width="2.00" shape="333.27,64.62 334.70,59.28"/>
    </edge>
    <edge id=":332297930_3" function="internal">
        <lane id=":332297930_3_0" index="0" allow="pedestrian bicycle" speed="2.78" length="2.92" width="2.00" shape="333.27,64.62 333.95,64.03 334.50,63.92 334.92,64.29 335.20,65.14"/>
    </edge>
    <edge id=":332297963_0" function="internal">
        <lane id=":332297963_0_0" index="0" allow="pedestrian bicycle" speed="2.78" length="5.01" width="2.00" shape="327.07,95.15 325.78,99.99"/>
    </edge>
    <edge id=":332297963_1" function="internal">
        <lane id=":332297963_1_0" index="0" allow="pedestrian bicycle" speed="2.78" length="2.92" width="2.00" shape="327.07,95.15 326.39,95.74 325.84,95.85 325.42,95.48 325.14,94.62"/>
    </edge>
    <edge id=":332297963_2" function="internal">
        <lane id=":332297963_2_0" index="0" allow="pedestrian bicycle" speed="2.78" length="5.03" width="2.00" shape="323.84,99.48 325.14,94.62"/>
    </edge>
    <edge id=":332297963_3" function="internal">
        <lane id=":332297963_3_0" index="0" allow="pedestrian bicycle" speed="2.78" length="2.92" width="2.00" shape="323.84,99.48 324.52,98.88 325.06,98.77 325.48,99.14 325.78,99.99"/>
    </edge>
    <edge id=":5277206644_0" function="internal">
        <lane id=":5277206644_0_0" index="0" allow="pedestrian bicycle" speed="2.78" length="2.92" width="2.00" shape="349.04,15.36 349.63,14.67 350.15,14.48 350.62,14.79 351.03,15.59"/>
    </edge>

    <edge id="-28107416#0" from="1038114266" to="308748368" priority="10" type="highway.tertiary" shape="147.62,86.71 162.89,33.71 173.72,0.00">
        <lane id="-28107416#0_0" index="0" disallow="tram rail_urban rail rail_electric rail_fast ship" speed="22.22" length="83.25" shape="148.12,79.20 161.36,33.24 172.19,-0.49"/>
    </edge>
    <edge id="-28107416#1" from="1038114280" to="1038114266" priority="10" type="highway.tertiary">
        <lane id="-28107416#1_0" index="0" disallow="tram rail_urban rail rail_electric rail_fast ship" speed="22.22" length="13.60" shape="144.07,107.76 145.32,94.22"/>
    </edge>
    <edge id="-28107416#2" from="1038194557" to="1038114280" priority="10" type="highway.tertiary" shape="164.35,191.33 153.69,164.21 151.27,157.06 147.13,142.42 145.44,110.42">
        <lane id="-28107416#2_0" index="0" disallow="tram rail_urban rail rail_electric rail_fast ship" speed="22.22" length="79.79" shape="161.89,189.45 152.19,164.76 149.74,157.54 145.55,142.68 143.95,112.53"/>
    </edge>
    <edge id="-28107416#3" from="308748457" to="1038194557" priority="10" type="highway.tertiary">
        <lane id="-28107416#3_0" index="0" disallow="tram rail_urban rail rail_electric rail_fast ship" speed="22.22" length="1.95" shape="164.36,195.88 163.67,194.06"/>
    </edge>
    <edge id="-30155252#0" from="1038194619" to="1038114266" priority="3" type="highway.residential">
        <lane id="-30155252#0_0" index="0" disallow="tram rail_urban rail rail_electric rail_fast ship" speed="13.89" length="22.83" shape="176.95,95.26 154.73,90.03"/>
    </edge>
    <edge id="-30155252#1" from="332297674" to="1038194619" priority="3" type="highway.residential" shape="264.93,116.31 240.24,112.81 231.26,108.56 214.70,99.57 184.20,95.32">
        <lane id="-30155252#1_0" index="0" disallow="tram rail_urban rail rail_electric rail_fast ship" speed="13.89" length="70.15" shape="258.07,116.96 239.77,114.36 230.53,109.98 214.20,101.11 191.57,97.96"/>
    </edge>
    <edge id="-30155252#2" from="1038194510" to="332297674" priority="3" type="highway.residential" shape="279.20,136.94 276.81,134.29 273.10,129.97 268.86,122.84 264.93,116.31">
        <lane id="-30155252#2_0" index="0" disallow="tram rail_urban rail rail_electric rail_fast ship" speed="13.89" length="17.45" shape="276.14,135.94 275.61,135.35 271.80,130.90 267.49,123.66 266.26,121.63"/>
    </edge>
    <edge id="-30155252#3" from="332297709" to="1038194510" priority="3" type="highway.residential" shape="311.68,149.64 306.80,148.33 283.63,140.37 279.20,136.94">